data/case2383wp_ps.m
function ps = case2383wp_ps

ps.baseMVA = 100.000000;

ps.bus = [...
%ID type Pd Qd Gs Bs area Vmag Vang basekV zone Vmax Vmin lam_P lam_Q mu_Vx mu_Vn locX locY 
 1 1 0 0 0 0 1 1.09459 -1.49477 220 1 1.11 0.95 0 0 0 0 97.3995 217.509;
 2 1 0 0 0 0 1 1.08536 -1.01013 220 1 1.11 0.95 0 0 0 0 189.502 96.1595;
 3 1 0 0 0 0 1 1.07457 -26.2082 220 1 1.11 0.95 0 0 0 0 -1243.67 -1192.08;
 4 1 0 0 0 0 1 1.07141 -8.51648 220 1 1.11 0.95 0 0 0 0 -173.303 24.7009;
 5 1 0 0 0 0 1 1.06653 -18.9975 220 1 1.11 0.95 0 0 0 0 -672.037 -643.757;
 6 1 0 0 0 0 1 1.02359 -13.8223 400 1 1.05 0.95 0 0 0 0 -299.36 -555.04;
 7 1 0 0 0 0 1 1.05977 -21.4437 220 1 1.11 0.95 0 0 0 0 -299.034 -210.447;
 8 1 0 0 0 0 1 1.02747 -10.3803 400 1 1.05 0.95 0 0 0 0 -40.4374 -210.52;
 9 1 0 0 0 0 1 1.0357 -16.8761 400 1 1.05 0.95 0 0 0 0 -506.328 -999.214;
 10 2 0 0 0 0 1 1 -20.6499 220 1 1.11 0.95 0 0 0 0 -1067.17 -1004.98;
 11 1 0 0 0 0 1 1.07777 -7.06414 220 1 1.11 0.95 0 0 0 0 -125.184 211.451;
 12 1 0 0 0 0 1 1.06684 -23.9177 220 1 1.11 0.95 0 0 0 0 -619.842 128.002;
 13 1 0 0 0 0 1 1.0652 -21.4897 220 1 1.11 0.95 0 0 0 0 -159.087 -392.311;
 14 1 0 0 0 0 1 1.06636 -5.06977 220 1 1.11 0.95 0 0 0 0 39.9706 -3.51388;
 15 1 0 0 0 0 1 1.00942 -15.3188 400 1 1.05 0.95 0 0 0 0 -292.521 -105.099;
 16 2 0 0 0 0 1 1 -0.984708 220 1 1.11 0.95 0 0 0 0 41.6717 63.1925;
 17 2 0 0 0 0 1 1 -0.148407 220 1 1.11 0.95 0 0 0 0 89.5299 123.582;
 18 3 0 0 0 0 1 1 0 400 1 1.05 0.95 0 0 0 0 122.766 76.6959;
 19 1 0 0 0 0 1 1.06593 -22.6857 220 1 1.11 0.95 0 0 0 0 -511.302 154.755;
 20 1 0 0 0 0 1 1.03713 -1.93687 400 1 1.05 0.95 0 0 0 0 282.271 729.575;
 21 1 0 0 0 0 1 1.05945 -21.8748 220 1 1.11 0.95 0 0 0 0 -356.573 -296.529;
 22 1 0 0 0 0 1 1.08141 -12.3887 220 1 1.11 0.95 0 0 0 0 -293.247 291.996;
 23 1 0 0 0 0 1 1.06236 -16.6846 220 2 1.11 0.95 0 0 0 0 -99.7634 -1246.13;
 24 1 0 0 0 0 1 1.05448 -12.1019 220 2 1.11 0.95 0 0 0 0 393.655 -1225.18;
 25 1 0 0 0 0 1 1.05663 -10.6238 220 2 1.11 0.95 0 0 0 0 318.46 -1071.16;
 26 1 0 0 0 0 1 1.05141 -19.5201 220 2 1.11 0.95 0 0 0 0 -310.455 -1760.43;
 27 1 0 0 0 0 1 1.06588 -10.2481 220 2 1.11 0.95 0 0 0 0 254.409 -236.677;
 28 1 0 0 0 0 1 1.06585 -10.2431 220 2 1.11 0.95 0 0 0 0 386.922 -485.676;
 29 2 0 0 0 0 1 1 -15.3401 220 2 1.11 0.95 0 0 0 0 -157.553 -521.26;
 30 2 0 0 0 0 1 1 -15.3408 220 2 1.11 0.95 0 0 0 0 -155.348 -700.431;
 31 2 0 0 0 0 1 1 -10.731 400 2 1.05 0.95 0 0 0 0 -92.7216 -524.766;
 32 1 0 0 0 0 1 1.02144 -10.7702 400 2 1.05 0.95 0 0 0 0 -237.494 -888.345;
 33 1 0 0 0 0 1 1.06034 -11.0078 220 2 1.11 0.95 0 0 0 0 294.384 -349.833;
 34 1 0 0 0 0 1 1.04374 -10.3139 400 2 1.05 0.95 0 0 0 0 482.166 -1288.24;
 35 1 0 0 0 0 1 1.04377 -10.322 400 2 1.05 0.95 0 0 0 0 460.463 -1464.06;
 36 1 0 0 0 0 1 1.00362 -14.0199 400 2 1.05 0.95 0 0 0 0 -389.986 -1249.38;
 37 1 0 0 0 0 1 1.06175 -17.6536 220 2 1.11 0.95 0 0 0 0 -199.76 -1609.34;
 38 1 0 0 0 0 1 1.06176 -17.6525 220 2 1.11 0.95 0 0 0 0 -255.315 -1696.64;
 39 1 0 0 0 0 1 1.01543 -9.4424 400 2 1.05 0.95 0 0 0 0 111.636 -586.039;
 40 1 0 0 0 0 1 1.0154 -9.43207 400 2 1.05 0.95 0 0 0 0 236.089 -853.253;
 41 2 0 0 0 0 1 1 -8.49799 220 2 1.11 0.95 0 0 0 0 570.488 -900.476;
 42 2 0 0 0 0 1 1 -8.51047 220 2 1.11 0.95 0 0 0 0 478.071 -918.059;
 43 2 0 0 0 0 1 1 -6.91304 400 2 1.05 0.95 0 0 0 0 420.454 -820.249;
 44 2 0 0 0 0 1 1 -6.92576 400 2 1.05 0.95 0 0 0 0 324.713 -883.08;
 45 2 0 0 0 0 1 1 -16.2899 220 2 1.11 0.95 0 0 0 0 -110.793 -651.38;
 46 1 0 0 0 0 1 1.07923 -16.2883 220 2 1.11 0.95 0 0 0 0 -175.203 -967.187;
 47 1 0 0 0 0 1 1.06011 -10.8922 220 2 1.11 0.95 0 0 0 0 386.892 -770.604;
 48 1 0 0 0 0 1 1.07781 -15.2935 220 2 1.11 0.95 0 0 0 0 0.906815 -413.541;
 49 1 0 0 0 0 1 1.07784 -15.2979 220 2 1.11 0.95 0 0 0 0 -52.4773 -575.74;
 50 1 0 0 0 0 1 1.03085 -8.51924 400 2 1.05 0.95 0 0 0 0 514.799 -814.203;
 51 1 0 0 0 0 1 1.03093 -8.53784 400 2 1.05 0.95 0 0 0 0 534.684 -1040.73;
 52 1 0 0 0 0 1 1.05314 -13.1269 220 2 1.11 0.95 0 0 0 0 -8.13244 -1258.67;
 53 1 0 0 0 0 1 1.05513 -13.0052 220 2 1.11 0.95 0 0 0 0 58.0885 -1188.31;
 54 1 0 0 0 0 1 1.05684 -10.5536 220 2 1.11 0.95 0 0 0 0 436.849 -1021.7;
 55 1 0 0 0 0 1 1.06669 -16.7017 220 2 1.11 0.95 0 0 0 0 -242.858 -1859.68;
 56 1 0 0 0 0 1 1.08017 -5.1255 220 3 1.11 0.95 0 0 0 0 390.738 188.08;
 57 1 0 0 0 0 1 1.07881 -7.28594 220 3 1.11 0.95 0 0 0 0 1009.92 -902.671;
 58 1 0 0 0 0 1 1.07904 -7.28594 220 3 1.11 0.95 0 0 0 0 941.138 -957.06;
 59 1 0 0 0 0 1 1.10537 0.466803 220 3 1.11 0.95 0 0 0 0 1685.27 -992.038;
 60 1 0 0 0 0 1 1.10342 -3.85221 220 3 1.11 0.95 0 0 0 0 1165.66 585.87;
 61 1 0 0 0 0 1 1.10846 2.09383 220 3 1.11 0.95 0 0 0 0 1472.34 -545.605;
 62 1 0 0 0 0 1 1.10844 2.09547 220 3 1.11 0.95 0 0 0 0 1627.65 -761.289;
 63 2 0 0 0 0 1 1 0.8133 220 3 1.11 0.95 0 0 0 0 1318.64 -898.426;
 64 2 0 0 0 0 1 1 0.646403 220 3 1.11 0.95 0 0 0 0 1258.22 -585.831;
 65 1 0 0 0 0 1 1.1032 -1.02851 220 3 1.11 0.95 0 0 0 0 1508.51 -443.249;
 66 1 0 0 0 0 1 1.10025 -8.63547 220 3 1.11 0.95 0 0 0 0 442.673 1309.74;
 67 2 0 0 0 0 1 1 -6.55727 400 3 1.05 0.95 0 0 0 0 311.455 1098.61;
 68 1 0 0 0 0 1 1.10017 -6.90234 220 3 1.11 0.95 0 0 0 0 751.459 1234.17;
 69 1 0 0 0 0 1 1.10699 -0.838206 220 3 1.11 0.95 0 0 0 0 1537.99 -213.54;
 70 1 0 0 0 0 1 1.08487 -4.30232 220 3 1.11 0.95 0 0 0 0 368.478 10.0222;
 71 1 0 0 0 0 1 1.09891 -1.83715 220 3 1.11 0.95 0 0 0 0 1227.74 -484.893;
 72 1 0 0 0 0 1 1.09891 -1.83715 220 3 1.11 0.95 0 0 0 0 1215.09 -437.935;
 73 1 0 0 0 0 1 1.08784 -3.63314 220 3 1.11 0.95 0 0 0 0 313.727 -153.468;
 74 1 0 0 0 0 1 1.0849 -4.51329 220 3 1.11 0.95 0 0 0 0 319.117 -37.9934;
 75 1 0 0 0 0 1 1.03193 -1.67232 400 3 1.05 0.95 0 0 0 0 246.991 -22.2608;
 76 1 0 0 0 0 1 1.0319 -1.67829 400 3 1.05 0.95 0 0 0 0 328.98 76.2828;
 77 1 0 0 0 0 1 1.0987 -2.26735 220 3 1.11 0.95 0 0 0 0 1561.96 -287.269;
 78 1 0 0 0 0 1 1.09663 -4.97132 220 3 1.11 0.95 0 0 0 0 850.068 843.006;
 79 1 0 0 0 0 1 1.0988 -1.2768 220 3 1.11 0.95 0 0 0 0 914.014 -534.071;
 80 1 0 0 0 0 1 1.07946 -7.23451 220 3 1.11 0.95 0 0 0 0 919.525 -1006.81;
 81 1 0 0 0 0 1 1.07947 -7.23416 220 3 1.11 0.95 0 0 0 0 990.331 -943.485;
 82 1 0 0 0 0 1 1.10391 1.01276 220 3 1.11 0.95 0 0 0 0 1826.57 -867.407;
 83 2 0 0 0 0 1 1 -0.820475 220 3 1.11 0.95 0 0 0 0 1495.85 -49.7163;
 84 2 0 0 0 0 1 1 -0.82184 220 3 1.11 0.95 0 0 0 0 1607.74 -211.746;
 85 2 0 0 0 0 1 1 -2.29382 220 3 1.11 0.95 0 0 0 0 1166.7 -11.992;
 86 2 0 0 0 0 1 1 -2.29227 220 3 1.11 0.95 0 0 0 0 1035.32 -256.309;
 87 1 0 0 0 0 1 1.08937 -3.14762 220 3 1.11 0.95 0 0 0 0 658.806 -526.478;
 88 1 0 0 0 0 1 1.08939 -3.14799 220 3 1.11 0.95 0 0 0 0 611.095 -616.473;
 89 1 0 0 0 0 1 1.10008 -1.23809 220 3 1.11 0.95 0 0 0 0 1224.37 -999.389;
 90 1 0 0 0 0 1 1.10423 -1.79795 220 3 1.11 0.95 0 0 0 0 1516.44 -64.0756;
 91 1 0 0 0 0 1 1.10256 -0.666122 220 3 1.11 0.95 0 0 0 0 1528.63 -855.443;
 92 1 0 0 0 0 1 1.02371 -5.50653 400 3 1.05 0.95 0 0 0 0 760.745 -12.0192;
 93 2 0 0 0 0 1 1 -0.295206 220 3 1.11 0.95 0 0 0 0 1087.68 -830.97;
 94 1 0 0 0 0 1 1.10562 -0.29681 220 3 1.11 0.95 0 0 0 0 1041.21 -787.974;
 95 2 0 0 0 0 1 1 -0.453965 220 3 1.11 0.95 0 0 0 0 1253.81 -929.058;
 96 1 0 0 0 0 1 1.10752 -0.458398 220 3 1.11 0.95 0 0 0 0 1220.61 -1061.77;
 97 2 0 0 0 0 1 1 -4.8473 220 3 1.11 0.95 0 0 0 0 1612.49 -1626.9;
 98 1 0 0 0 0 1 1.02318 -7.55441 400 3 1.05 0.95 0 0 0 0 632.488 -860.039;
 99 1 0 0 0 0 1 1.02326 -7.54444 400 3 1.05 0.95 0 0 0 0 509.722 -641.631;
 100 1 0 0 0 0 1 1.03197 -5.15853 400 3 1.05 0.95 0 0 0 0 596.834 -512.524;
 101 1 0 0 0 0 1 1.03199 -5.1492 400 3 1.05 0.95 0 0 0 0 324.256 -272.88;
 102 1 0 0 0 0 1 1.10201 -1.14745 220 3 1.11 0.95 0 0 0 0 1352.81 -1027.49;
 103 2 0 0 0 0 1 1 -1.91368 220 3 1.11 0.95 0 0 0 0 1148.67 291.769;
 104 2 0 0 0 0 1 1 -1.90782 220 3 1.11 0.95 0 0 0 0 1357.64 254.407;
 105 2 0 0 0 0 1 1 -4.88539 400 3 1.05 0.95 0 0 0 0 508.697 219.258;
 106 1 0 0 0 0 1 1.01683 -4.89908 400 3 1.05 0.95 0 0 0 0 727.747 122.018;
 107 1 0 0 0 0 1 1.0836 -4.58762 220 3 1.11 0.95 0 0 0 0 505.617 136.313;
 108 1 0 0 0 0 1 1.08532 -4.41686 220 3 1.11 0.95 0 0 0 0 542.739 -5.70788;
 109 2 0 0 0 0 1 1 2.81436 220 3 1.11 0.95 0 0 0 0 1483.14 -500.537;
 110 2 0 0 0 0 1 1 2.81587 220 3 1.11 0.95 0 0 0 0 1615.12 -804.583;
 111 2 0 0 0 0 1 1 -14.342 220 4 1.11 0.95 0 0 0 0 -503.244 329.838;
 112 1 0 0 0 0 1 1.10649 -14.3359 220 4 1.11 0.95 0 0 0 0 -355.938 390.24;
 113 1 0 0 0 0 1 1.06221 -26.8751 220 4 1.11 0.95 0 0 0 0 -544.652 1709.12;
 114 1 0 0 0 0 1 1.0755 -26.3378 220 4 1.11 0.95 0 0 0 0 -574.477 1766.45;
 115 1 0 0 0 0 1 0.983362 -20.2908 400 4 1.05 0.95 0 0 0 0 -471.431 1288.99;
 116 1 0 0 0 0 1 0.983358 -20.2812 400 4 1.05 0.95 0 0 0 0 -279.546 1201.93;
 117 1 0 0 0 0 1 1.0727 -30.013 220 4 1.11 0.95 0 0 0 0 -1025.15 709.183;
 118 1 0 0 0 0 1 1.06717 -38.7245 220 4 1.11 0.95 0 0 0 0 -2232.68 1568.48;
 119 1 0 0 0 0 1 1.06717 -38.7245 220 4 1.11 0.95 0 0 0 0 -2231.67 1530;
 120 1 0 0 0 0 1 1.05133 -37.1907 220 4 1.11 0.95 0 0 0 0 -1691.43 1689.06;
 121 1 0 0 0 0 1 1.06996 -26.9198 220 4 1.11 0.95 0 0 0 0 -152.542 1688.91;
 122 1 0 0 0 0 1 1.06996 -26.9198 220 4 1.11 0.95 0 0 0 0 -198.62 1657.5;
 123 2 0 0 0 0 1 1 -19.4003 220 4 1.11 0.95 0 0 0 0 -720.683 568.759;
 124 2 0 0 0 0 1 1 -19.3947 220 4 1.11 0.95 0 0 0 0 -611.475 313.51;
 125 2 0 0 0 0 1 1 -35.5758 220 4 1.11 0.95 0 0 0 0 -2001.42 1625.31;
 126 1 0 0 0 0 1 1.10605 -35.5631 220 4 1.11 0.95 0 0 0 0 -2038.18 1398.26;
 127 2 0 0 0 0 1 1 -27.7607 400 4 1.05 0.95 0 0 0 0 -1815.12 1037.94;
 128 1 0 0 0 0 1 1.03295 -27.7688 400 4 1.05 0.95 0 0 0 0 -1580.71 982.851;
 129 1 0 0 0 0 1 1.04517 -32.5781 220 4 1.11 0.95 0 0 0 0 -1033.56 1127.18;
 130 1 0 0 0 0 1 1.03459 -33.9541 220 4 1.11 0.95 0 0 0 0 -1316.49 1602.78;
 131 2 0 0 0 0 1 1 -24.0818 220 4 1.11 0.95 0 0 0 0 -689.474 1548.15;
 132 2 0 0 0 0 1 1 -24.0968 220 4 1.11 0.95 0 0 0 0 -769.671 1539.08;
 133 1 0 0 0 0 1 0.995287 -19.6107 400 4 1.05 0.95 0 0 0 0 -550.908 1465.3;
 134 1 0 0 0 0 1 0.99529 -19.6094 400 4 1.05 0.95 0 0 0 0 -630.488 1476.59;
 135 1 0 0 0 0 1 1.06724 -38.6524 220 4 1.11 0.95 0 0 0 0 -2234.55 1777.1;
 136 1 0 0 0 0 1 1.06724 -38.6524 220 4 1.11 0.95 0 0 0 0 -2200.52 1793.01;
 137 1 0 0 0 0 1 1.00004 -16.6492 400 4 1.05 0.95 0 0 0 0 191.742 1068.84;
 138 1 0 0 0 0 1 1.00004 -16.6492 400 4 1.05 0.95 0 0 0 0 176.924 1124.14;
 139 2 0 0 0 0 1 1 -19.6947 220 4 1.11 0.95 0 0 0 0 -930.336 199.783;
 140 2 0 0 0 0 1 1 -19.7021 220 4 1.11 0.95 0 0 0 0 -870.488 353.458;
 141 1 0 0 0 0 1 1.04872 -35.3113 220 4 1.11 0.95 0 0 0 0 -1546.75 682.798;
 142 1 0 0 0 0 1 1.06412 -38.929 220 4 1.11 0.95 0 0 0 0 -2267.03 1674.19;
 143 1 0 0 0 0 1 1.07134 -31.5007 220 4 1.11 0.95 0 0 0 0 -1115.24 934.253;
 144 1 0 0 0 0 1 1.07125 -31.4998 220 4 1.11 0.95 0 0 0 0 -1078.88 891.232;
 145 1 0 0 0 0 1 0.976593 -31.1792 400 4 1.05 0.95 0 0 0 0 -1324.37 1006.54;
 146 1 0 0 0 0 1 0.976593 -31.1792 400 4 1.05 0.95 0 0 0 0 -1325.19 955.313;
 147 1 0 0 0 0 1 1.04434 -30.6044 220 4 1.11 0.95 0 0 0 0 -1000.27 1261.08;
 148 1 0 0 0 0 1 1.04439 -30.5987 220 4 1.11 0.95 0 0 0 0 -935.088 1282.89;
 149 1 0 0 0 0 1 1.0679 -32.1971 220 4 1.11 0.95 0 0 0 0 -1177.63 918.232;
 150 1 0 0 0 0 1 1.06508 -26.052 220 4 1.11 0.95 0 0 0 0 -401.679 1507.4;
 151 1 0 0 0 0 1 1.06511 -26.0596 220 4 1.11 0.95 0 0 0 0 -452.383 1615.94;
 152 1 0 0 0 0 1 1.05852 -22.4711 220 4 1.11 0.95 0 0 0 0 164.132 1282.76;
 153 1 0 0 0 0 1 1.05852 -22.4711 220 4 1.11 0.95 0 0 0 0 145.47 1212.59;
 154 1 0 0 0 0 1 1.02814 -32.3988 220 4 1.11 0.95 0 0 0 0 -1114.03 1482.74;
 155 1 0 0 0 0 1 1.05465 -27.8262 220 5 1.11 0.95 0 0 0 0 -1394.82 255.602;
 156 1 0 0 0 0 1 1.11 -30.1996 220 5 1.11 0.95 0 0 0 0 -1745.67 427.934;
 157 1 0 0 0 0 1 1.02497 -28.3062 400 5 1.05 0.95 0 0 0 0 -1879.51 701.868;
 158 1 0 0 0 0 1 1.02494 -28.2991 400 5 1.05 0.95 0 0 0 0 -1709.25 470.685;
 159 1 0 0 0 0 1 1.02819 -25.1516 400 5 1.05 0.95 0 0 0 0 -1386.02 -137.006;
 160 1 0 0 0 0 1 1.02825 -25.1595 400 5 1.05 0.95 0 0 0 0 -1520.29 -243.933;
 161 1 0 0 0 0 1 1.05515 -31.0949 220 5 1.11 0.95 0 0 0 0 -1545.85 274.665;
 162 1 0 0 0 0 1 1.05516 -31.0959 220 5 1.11 0.95 0 0 0 0 -1676.67 334.925;
 163 1 0 0 0 0 1 1.08711 -28.6132 220 5 1.11 0.95 0 0 0 0 -1087.49 -322.583;
 164 1 0 0 0 0 1 1.08709 -28.6146 220 5 1.11 0.95 0 0 0 0 -1138.04 -171.345;
 165 1 0 0 0 0 1 1.00151 -22.6064 400 5 1.05 0.95 0 0 0 0 -883.953 -218.935;
 166 1 0 0 0 0 1 1.06691 -27.063 220 5 1.11 0.95 0 0 0 0 -1261.64 222.284;
 167 1 0 0 0 0 1 1.06695 -27.061 220 5 1.11 0.95 0 0 0 0 -1148.06 149.251;
 168 1 0 0 0 0 1 1.0301 -26.8939 400 5 1.05 0.95 0 0 0 0 -1561.43 -592.433;
 169 1 0 0 0 0 1 1.03009 -26.9008 400 5 1.05 0.95 0 0 0 0 -1549.75 -807.355;
 170 1 0 0 0 0 1 1.05584 -27.9407 220 5 1.11 0.95 0 0 0 0 -1147.25 -700.873;
 171 1 0 0 0 0 1 1.05586 -27.9373 220 5 1.11 0.95 0 0 0 0 -1198.5 -950.023;
 172 1 0 0 0 0 1 1.06221 -29.1196 220 5 1.11 0.95 0 0 0 0 -1118.97 -284.051;
 173 1 0 0 0 0 1 1.06217 -29.1179 220 5 1.11 0.95 0 0 0 0 -1105.05 -224.3;
 174 1 0 0 0 0 1 1.05996 -26.9019 220 5 1.11 0.95 0 0 0 0 -1018.03 -172.358;
 175 1 0 0 0 0 1 1.05995 -26.9091 220 5 1.11 0.95 0 0 0 0 -1044.85 -118.249;
 176 2 0 0 0 0 1 1 -23.9182 400 5 1.05 0.95 0 0 0 0 -1574.27 305.45;
 177 2 0 0 0 0 1 1 -23.9154 400 5 1.05 0.95 0 0 0 0 -1497.66 124.68;
 178 1 0 0 0 0 1 1.07843 -32.2778 220 5 1.11 0.95 0 0 0 0 -1805.59 522.894;
 179 1 0 0 0 0 1 1.07846 -32.273 220 5 1.11 0.95 0 0 0 0 -1815.5 410.76;
 180 2 0 0 0 0 2 1 -7.67851 400 6 1.05 0.95 0 0 0 0 680.637 78.7371;
 181 2 0 0 0 0 3 1 -9.82962 220 6 1.11 0.95 0 0 0 0 -288.639 -1951.43;
 182 2 0 0 0 0 5 1 -19.3151 400 6 1.05 0.95 0 0 0 0 -614.516 1424.62;
 183 1 0 0 0 0 3 1.05 -11.2496 400 6 1.05 0.95 0 0 0 0 466.097 -1372.74;
 184 2 0 0 0 0 2 1 -4.75742 220 6 1.11 0.95 0 0 0 0 1516.1 -396.223;
 185 2 0 0 0 0 2 1 -8.46021 400 6 1.05 0.95 0 0 0 0 441.142 150.916;
 186 2 0 0 0 0 5 1 -35.7076 220 6 1.11 0.95 0 0 0 0 -2014.67 1486.82;
 187 1 0 0 0 0 1 1.06615 -25.6963 110 1 1.12 0.95 0 0 0 0 -771.479 -1550.35;
 188 1 0 0 0 0 1 1.04179 -32.2621 110 1 1.12 0.95 0 0 0 0 -1357.19 -1364.77;
 189 1 0 0 0 0 1 0.997183 -29.5143 110 1 1.12 0.95 0 0 0 0 -1064.31 -1791.68;
 190 1 0 0 0 0 1 1.10393 -5.68451 110 1 1.12 0.95 0 0 0 0 76.7339 343.076;
 191 1 0 0 0 0 1 1.08503 -6.88817 110 1 1.12 0.95 0 0 0 0 218.569 294.178;
 192 2 0 0 0 0 1 1 -22.0811 110 1 1.12 0.95 0 0 0 0 -875.759 -1501.51;
 193 1 0 0 0 0 1 1.11886 -21.9547 110 1 1.12 0.95 0 0 0 0 -841.271 -1402.83;
 194 1 0 0 0 0 1 1.11858 -22.2477 110 1 1.12 0.95 0 0 0 0 -927.854 -1541.51;
 195 1 0 0 0 0 1 1.08305 -26.7334 110 1 1.12 0.95 0 0 0 0 -908.146 -855.806;
 196 2 0 0 0 0 1 1 -33.4042 110 1 1.12 0.95 0 0 0 0 377.089 1615.55;
 197 1 0 0 0 0 1 1.07311 -15.403 110 1 1.12 0.95 0 0 0 0 139.103 1022.95;
 198 2 0 0 0 0 1 1 -26.8935 110 1 1.12 0.95 0 0 0 0 -508.62 -150.408;
 199 1 0 0 0 0 1 1.10783 -8.26961 110 1 1.12 0.95 0 0 0 0 211.834 519.529;
 200 1 0 0 0 0 1 1.09763 -25.9499 110 1 1.12 0.95 0 0 0 0 -816.48 -405.322;
...
];

ps.branch = [...
%from to R      X       B       rateA rateB rateC tap shift status  -   -   -   -   -   -   -   -   -   contg_st
16	1	0.00155	0.01169	0.01820	160	160	160	1.0000	0	1	0	0	0	0	0	0	0	0	0	0	0	1
355	1	0.00157	0.06612	0.00000	160	160	160	1.0099	0	1	0	0	0	0	0	0	0	0	0	0	0	1
17	2	0.00155	0.01169	0.01820	160	160	160	1.0000	0	1	0	0	0	0	0	0	0	0	0	0	0	1
354	2	0.00157	0.06612	0.00000	160	160	160	1.0220	0	1	0	0	0	0	0	0	0	0	0	0	0	1
10	3	0.01068	0.07895	0.12260	274	274	274	1.0000	0	1	0	0	0	0	0	0	0	0	0	0	0	1
219	3	0.00165	0.06736	0.00000	160	160	160	1.0270	0	1	0	0	0	0	0	0	0	0	0	0	0	1
220	3	0.00165	0.06736	0.00000	160	160	160	0.9955	0	1	0	0	0	0	0	0	0	0	0	0	0	1
7	4	0.01674	0.09711	0.14423	377	377	377	1.0000	0	1	0	0	0	0	0	0	0	0	0	0	0	1
11	4	0.00293	0.01599	0.02478	335	335	335	1.0000	0	1	0	0	0	0	0	0	0	0	0	0	0	1
14	4	0.00442	0.03223	0.04985	464	464	464	1.0000	0	1	0	0	0	0	0	0	0	0	0	0	0	1
16	4	0.00888	0.06665	0.08896	377	377	377	1.0000	0	1	0	0	0	0	0	0	0	0	0	0	0	1
22	4	0.00783	0.04300	0.04962	350	350	350	1.0000	0	1	0	0	0	0	0	0	0	0	0	0	0	1
245	4	0.00165	0.06901	0.00000	160	160	160	1.0594	0	1	0	0	0	0	0	0	0	0	0	0	0	1
246	4	0.00165	0.06901	0.00000	160	160	160	1.0448	0	1	0	0	0	0	0	0	0	0	0	0	0	1
5	6	0.00064	0.03050	0.00000	400	400	400	1.0435	-0.6	1	0	0	0	0	0	0	0	0	0	0	0	1
7	5	0.00525	0.03988	0.06195	381	381	381	1.0000	0	1	0	0	0	0	0	0	0	0	0	0	0	1
10	5	0.01459	0.11219	0.16553	381	381	381	1.0000	0	1	0	0	0	0	0	0	0	0	0	0	0	1
309	5	0.00165	0.06860	0.00000	160	160	160	1.0646	0	1	0	0	0	0	0	0	0	0	0	0	0	1
309	5	0.00165	0.06860	0.00000	160	160	160	1.0523	0	1	0	0	0	0	0	0	0	0	0	0	0	1
6	8	0.00112	0.01329	0.34125	1316	1316	1316	1.0000	0	1	0	0	0	0	0	0	0	0	0	0	0	1
6	9	0.00299	0.03675	0.91840	1427	1427	1427	1.0000	0	1	0	0	0	0	0	0	0	0	0	0	0	1
15	6	0.00298	0.03417	0.93504	1427	1427	1427	1.0000	0	1	0	0	0	0	0	0	0	0	0	0	0	1
31	6	0.00150	0.01506	0.40320	1385	1385	1385	1.0000	0	1	0	0	0	0	0	0	0	0	0	0	0	1
310	6	0.00150	0.06188	0.00000	250	250	250	1.0613	0	1	0	0	0	0	0	0	0	0	0	0	0	1
12	7	0.01211	0.08742	0.14017	381	381	381	1.0000	0	1	0	0	0	0	0	0	0	0	0	0	0	1
13	7	0.00205	0.01326	0.02243	335	335	335	1.0000	0	1	0	0	0	0	0	0	0	0	0	0	0	1
19	7	0.00570	0.04070	0.06021	323	323	323	1.0000	0	1	0	0	0	0	0	0	0	0	0	0	0	1
21	7	0.00093	0.00651	0.01113	160	160	160	1.0000	0	1	0	0	0	0	0	0	0	0	0	0	0	1
29	7	0.01269	0.07498	0.13020	362	362	362	1.0000	0	1	0	0	0	0	0	0	0	0	0	0	0	1
321	7	0.00041	0.03368	0.00000	250	250	250	1.0323	0	1	0	0	0	0	0	0	0	0	0	0	0	1
322	7	0.00165	0.06775	0.00000	160	160	160	1.0569	0	1	0	0	0	0	0	0	0	0	0	0	0	1
8	18	0.00336	0.03977	1.02163	1316	1316	1316	1.0000	0	1	0	0	0	0	0	0	0	0	0	0	0	1
332	9	0.00087	0.05244	-0.02144	330	330	330	1.0781	0	1	0	0	0	0	0	0	0	0	0	0	0	1
171	10	0.01409	0.10413	0.15972	464	464	464	1.0000	0	1	0	0	0	0	0	0	0	0	0	0	0	1
346	10	0.00124	0.06839	0.00000	160	160	160	1.0054	0	1	0	0	0	0	0	0	0	0	0	0	0	1
347	10	0.00124	0.06839	0.00000	160	160	160	1.0240	0	1	0	0	0	0	0	0	0	0	0	0	0	1
16	11	0.00570	0.03952	0.07553	464	464	464	1.0000	0	1	0	0	0	0	0	0	0	0	0	0	0	1
17	11	0.00570	0.03952	0.07553	464	464	464	1.0000	0	1	0	0	0	0	0	0	0	0	0	0	0	1
111	11	0.01068	0.06196	0.09496	394	394	394	1.0000	0	1	0	0	0	0	0	0	0	0	0	0	0	1
352	11	0.00165	0.06901	0.00000	160	160	160	1.0412	0	1	0	0	0	0	0	0	0	0	0	0	0	1
353	11	0.00165	0.06901	0.00000	160	160	160	1.0559	0	1	0	0	0	0	0	0	0	0	0	0	0	1
140	12	0.01465	0.10589	0.17085	464	464	464	1.0000	0	1	0	0	0	0	0	0	0	0	0	0	0	1
359	12	0.00155	0.06612	0.00000	160	160	160	1.0395	0	1	0	0	0	0	0	0	0	0	0	0	0	1
360	12	0.00157	0.06612	0.00000	160	160	160	1.0590	0	1	0	0	0	0	0	0	0	0	0	0	0	1
29	13	0.01345	0.08114	0.14113	339	339	339	1.0000	0	1	0	0	0	0	0	0	0	0	0	0	0	1
365	13	0.00165	0.06901	0.00000	160	160	160	1.0312	0	1	0	0	0	0	0	0	0	0	0	0	0	1
366	13	0.00165	0.06901	0.00000	160	160	160	0.9872	0	1	0	0	0	0	0	0	0	0	0	0	0	1
17	14	0.00384	0.02853	0.04588	464	464	464	1.0000	0	1	0	0	0	0	0	0	0	0	0	0	0	1
367	14	0.00157	0.06798	0.00000	160	160	160	1.0664	0	1	0	0	0	0	0	0	0	0	0	0	0	1
368	14	0.00165	0.06901	0.00000	160	160	160	1.0777	0	1	0	0	0	0	0	0	0	0	0	0	0	1
18	15	0.00358	0.04262	1.09440	1662	1662	1662	1.0000	0	1	0	0	0	0	0	0	0	0	0	0	0	1
15	165	0.00207	0.02474	0.66400	831	831	831	1.0000	0	1	0	0	0	0	0	0	0	0	0	0	0	1
374	15	0.00150	0.06188	0.00000	250	250	250	1.1502	0	1	0	0	0	0	0	0	0	0	0	0	0	1
16	18	0.00036	0.02519	0.00000	500	500	500	1.0605	0	1	0	0	0	0	0	0	0	0	0	0	0	1
16	73	0.00909	0.06240	0.11142	464	464	464	1.0000	0	1	0	0	0	0	0	0	0	0	0	0	0	1
17	18	0.00036	0.02519	0.00000	500	500	500	1.0607	0	1	0	0	0	0	0	0	0	0	0	0	0	1
17	74	0.00868	0.06405	0.09699	464	464	464	1.0000	0	1	0	0	0	0	0	0	0	0	0	0	0	1
20	18	0.00063	0.00749	0.39226	1427	1427	1427	1.0000	0	1	0	0	0	0	0	0	0	0	0	0	0	1
75	18	0.00219	0.02369	0.59584	1434	1434	1434	1.0000	0	1	0	0	0	0	0	0	0	0	0	0	0	1
18	76	0.00137	0.01625	0.41184	1662	1662	1662	1.0000	0	1	0	0	0	0	0	0	0	0	0	0	0	1
18	101	0.00231	0.02769	0.70144	1662	1662	1662	1.0000	0	1	0	0	0	0	0	0	0	0	0	0	0	1
124	19	0.01696	0.12366	0.19699	464	464	464	1.0000	0	1	0	0	0	0	0	0	0	0	0	0	0	1
425	19	0.00165	0.06818	0.00000	160	160	160	1.0241	0	1	0	0	0	0	0	0	0	0	0	0	0	1
67	20	0.00331	0.03425	0.85888	831	831	831	1.0000	0	1	0	0	0	0	0	0	0	0	0	0	0	1
447	20	0.00137	0.06119	-0.01504	250	250	250	1.0796	0	1	0	0	0	0	0	0	0	0	0	0	0	1
448	20	0.00137	0.06119	-0.01504	250	250	250	1.0923	0	1	0	0	0	0	0	0	0	0	0	0	0	1
502	21	0.00165	0.07107	0.00000	160	160	160	0.9922	0	1	0	0	0	0	0	0	0	0	0	0	0	1
112	22	0.00465	0.02618	0.02962	362	362	362	1.0000	0	1	0	0	0	0	0	0	0	0	0	0	0	1
526	22	0.00165	0.06901	0.00000	160	160	160	1.0685	0	1	0	0	0	0	0	0	0	0	0	0	0	1
527	22	0.00165	0.06901	0.00000	160	160	160	1.0424	0	1	0	0	0	0	0	0	0	0	0	0	0	1
37	23	0.01163	0.07031	0.10580	394	394	394	1.0000	0	1	0	0	0	0	0	0	0	0	0	0	0	1
46	23	0.00837	0.04868	0.07348	457	457	457	1.0000	0	1	0	0	0	0	0	0	0	0	0	0	0	1
53	23	0.01122	0.06558	0.09835	274	274	274	1.0000	0	1	0	0	0	0	0	0	0	0	0	0	0	1
540	23	0.00140	0.06680	0.00000	160	160	160	1.0182	0	1	0	0	0	0	0	0	0	0	0	0	0	1
54	24	0.00769	0.05727	0.08789	160	160	160	1.0000	0	1	0	0	0	0	0	0	0	0	0	0	0	1
545	24	0.00151	0.06715	0.00000	160	160	160	1.0161	0	1	0	0	0	0	0	0	0	0	0	0	0	1
41	25	0.00556	0.04145	0.06360	274	274	274	1.0000	0	1	0	0	0	0	0	0	0	0	0	0	0	1
53	25	0.00452	0.03368	0.05169	464	464	464	1.0000	0	1	0	0	0	0	0	0	0	0	0	0	0	1
54	25	0.00019	0.00140	0.00213	464	464	464	1.0000	0	1	0	0	0	0	0	0	0	0	0	0	0	1
564	25	0.00157	0.07808	0.00000	160	160	160	1.0276	0	1	0	0	0	0	0	0	0	0	0	0	0	1
38	26	0.00698	0.05196	0.07967	160	160	160	1.0000	0	1	0	0	0	0	0	0	0	0	0	0	0	1
568	26	0.00149	0.06616	0.00000	160	160	160	1.0130	0	1	0	0	0	0	0	0	0	0	0	0	0	1
28	27	0.00000	0.00010	0.00000	876	876	876	1.0000	0	1	0	0	0	0	0	0	0	0	0	0	0	1
33	27	0.00240	0.01494	0.02253	160	160	160	1.0000	0	1	0	0	0	0	0	0	0	0	0	0	0	1
48	27	0.01213	0.06215	0.09371	362	362	362	1.0000	0	1	0	0	0	0	0	0	0	0	0	0	0	1
27	74	0.01116	0.07231	0.10367	304	304	304	1.0000	0	1	0	0	0	0	0	0	0	0	0	0	0	1
47	28	0.00248	0.01798	0.02759	464	464	464	1.0000	0	1	0	0	0	0	0	0	0	0	0	0	0	1
28	88	0.01488	0.08161	0.11480	362	362	362	1.0000	0	1	0	0	0	0	0	0	0	0	0	0	0	1
30	29	0.00000	0.00010	0.00000	876	876	876	1.0000	0	1	0	0	0	0	0	0	0	0	0	0	0	1
29	32	0.00034	0.02097	0.00000	500	500	500	1.0619	0	1	0	0	0	0	0	0	0	0	0	0	0	1
45	29	0.00545	0.04021	0.06699	464	464	464	1.0000	0	1	0	0	0	0	0	0	0	0	0	0	0	1
48	29	0.00574	0.04283	0.06573	464	464	464	1.0000	0	1	0	0	0	0	0	0	0	0	0	0	0	1
613	29	0.00157	0.06775	0.00000	160	160	160	1.0016	0	1	0	0	0	0	0	0	0	0	0	0	0	1
46	30	0.00545	0.04021	0.06699	464	464	464	1.0000	0	1	0	0	0	0	0	0	0	0	0	0	0	1
49	30	0.00707	0.04541	0.06931	362	362	362	1.0000	0	1	0	0	0	0	0	0	0	0	0	0	0	1
32	31	0.00000	0.00010	0.00000	1593	1593	1593	1.0000	0	1	0	0	0	0	0	0	0	0	0	0	0	1
39	31	0.00176	0.02144	0.57344	1385	1385	1385	1.0000	0	1	0	0	0	0	0	0	0	0	0	0	0	1
36	32	0.00167	0.01890	0.54176	498	498	498	1.0000	0	1	0	0	0	0	0	0	0	0	0	0	0	1
615	33	0.00163	0.06946	0.00000	160	160	160	1.0291	0	1	0	0	0	0	0	0	0	0	0	0	0	1
35	34	0.00000	0.00010	0.00000	1593	1593	1593	1.0000	0	1	0	0	0	0	0	0	0	0	0	0	0	1
34	51	0.00113	0.01406	0.37488	1385	1385	1385	1.0000	0	1	0	0	0	0	0	0	0	0	0	0	0	1
183	34	0.00188	0.02287	0.64320	1385	1385	1385	1.0000	0	1	0	0	0	0	0	0	0	0	0	0	0	1
183	35	0.00188	0.02287	0.64320	1385	1385	1385	1.0000	0	1	0	0	0	0	0	0	0	0	0	0	0	1
617	35	0.00135	0.06052	0.00000	250	250	250	1.0654	0	1	0	0	0	0	0	0	0	0	0	0	0	1
644	36	0.00135	0.06052	0.00000	250	250	250	1.1003	0	1	0	0	0	0	0	0	0	0	0	0	0	1
645	36	0.00153	0.06156	0.00000	250	250	250	1.0971	0	1	0	0	0	0	0	0	0	0	0	0	0	1
38	37	0.00000	0.00010	0.00000	876	876	876	1.0000	0	1	0	0	0	0	0	0	0	0	0	0	0	1
663	37	0.00157	0.06616	0.00000	160	160	160	1.0009	0	1	0	0	0	0	0	0	0	0	0	0	0	1
55	38	0.00316	0.02076	0.03146	394	394	394	1.0000	0	1	0	0	0	0	0	0	0	0	0	0	0	1
40	39	0.00000	0.00010	0.00000	1593	1593	1593	1.0000	0	1	0	0	0	0	0	0	0	0	0	0	0	1
682	39	0.00139	0.05984	0.00000	250	250	250	1.0603	0	1	0	0	0	0	0	0	0	0	0	0	0	0
44	40	0.00109	0.01277	0.34176	1385	1385	1385	1.0000	0	1	0	0	0	0	0	0	0	0	0	0	0	1
679	40	0.00140	0.06235	0.00000	250	250	250	1.0996	0	1	0	0	0	0	0	0	0	0	0	0	0	1
42	41	0.00000	0.00010	0.00000	876	876	876	1.0000	0	1	0	0	0	0	0	0	0	0	0	0	0	1
41	43	0.00081	0.03000	0.00000	400	400	400	1.0377	0	1	0	0	0	0	0	0	0	0	0	0	0	1
80	41	0.00372	0.04380	0.10096	609	609	609	1.0000	0	1	0	0	0	0	0	0	0	0	0	0	0	1
47	42	0.00882	0.06564	0.10066	274	274	274	1.0000	0	1	0	0	0	0	0	0	0	0	0	0	0	1
54	42	0.00355	0.02643	0.04056	392	392	392	1.0000	0	1	0	0	0	0	0	0	0	0	0	0	0	1
689	42	0.00145	0.06839	0.00000	160	160	160	1.0037	0	1	0	0	0	0	0	0	0	0	0	0	0	1
44	43	0.00000	0.00010	0.00000	1593	1593	1593	1.0000	0	1	0	0	0	0	0	0	0	0	0	0	0	1
99	43	0.00169	0.01994	0.50624	831	831	831	1.0000	0	1	0	0	0	0	0	0	0	0	0	0	0	1
50	44	0.00094	0.01097	0.29376	1662	1662	1662	1.0000	0	1	0	0	0	0	0	0	0	0	0	0	0	1
46	45	0.00000	0.00010	0.00000	876	876	876	1.0000	0	1	0	0	0	0	0	0	0	0	0	0	0	1
49	45	0.01048	0.06097	0.09205	394	394	394	1.0000	0	1	0	0	0	0	0	0	0	0	0	0	0	1
706	47	0.00157	0.06775	0.00000	160	160	160	1.0249	0	1	0	0	0	0	0	0	0	0	0	0	0	1
707	47	0.00165	0.06775	0.00000	160	160	160	1.0201	0	1	0	0	0	0	0	0	0	0	0	0	0	1
49	48	0.00000	0.00010	0.00000	876	876	876	1.0000	0	1	0	0	0	0	0	0	0	0	0	0	0	1
717	48	0.00163	0.06783	0.00000	160	160	160	1.0230	0	1	0	0	0	0	0	0	0	0	0	0	0	1
716	49	0.00143	0.06831	0.00000	160	160	160	1.0238	0	1	0	0	0	0	0	0	0	0	0	0	0	1
51	50	0.00000	0.00010	0.00000	1593	1593	1593	1.0000	0	1	0	0	0	0	0	0	0	0	0	0	0	1
98	50	0.00150	0.01788	0.45120	831	831	831	1.0000	0	1	0	0	0	0	0	0	0	0	0	0	0	1
100	50	0.00469	0.05544	1.40480	831	831	831	1.0000	0	1	0	0	0	0	0	0	0	0	0	0	0	1
726	50	0.00139	0.06080	0.00000	250	250	250	1.0815	0	1	0	0	0	0	0	0	0	0	0	0	0	1
727	51	0.00140	0.06235	0.00000	250	250	250	1.0819	0	1	0	0	0	0	0	0	0	0	0	0	0	1
53	52	0.00151	0.00878	0.01316	160	160	160	1.0000	0	1	0	0	0	0	0	0	0	0	0	0	0	1
754	52	0.00163	0.06754	0.00000	160	160	160	1.0317	0	1	0	0	0	0	0	0	0	0	0	0	0	1
181	55	0.01434	0.08353	0.12603	394	394	394	1.0000	0	1	0	0	0	0	0	0	0	0	0	0	0	0
778	55	0.00161	0.06762	0.00000	160	160	160	0.9979	0	1	0	0	0	0	0	0	0	0	0	0	0	1
74	56	0.00207	0.01281	0.02052	394	394	394	1.0000	0	1	0	0	0	0	0	0	0	0	0	0	0	1
796	56	0.00207	0.06777	-0.00300	160	160	160	1.0389	0	1	0	0	0	0	0	0	0	0	0	0	0	1
81	57	0.00083	0.00496	0.00726	137	137	137	1.0000	0	1	0	0	0	0	0	0	0	0	0	0	0	0
80	58	0.00083	0.00496	0.00726	137	137	137	1.0000	0	1	0	0	0	0	0	0	0	0	0	0	0	0
63	59	0.00207	0.01405	0.02265	362	362	362	1.0000	0	1	0	0	0	0	0	0	0	0	0	0	0	1
82	59	0.01116	0.07045	0.11606	362	362	362	1.0000	0	1	0	0	0	0	0	0	0	0	0	0	0	1
821	59	0.00165	0.06798	-0.00319	160	160	160	1.0178	0	1	0	0	0	0	0	0	0	0	0	0	0	1
60	85	0.01095	0.05930	0.08441	362	362	362	1.0000	0	1	0	0	0	0	0	0	0	0	0	0	0	1
104	60	0.00599	0.04091	0.07212	464	464	464	1.0000	0	1	0	0	0	0	0	0	0	0	0	0	0	1
834	60	0.00145	0.06921	-0.00532	160	160	160	0.9936	0	1	0	0	0	0	0	0	0	0	0	0	0	1
836	60	0.00372	0.12583	-0.00242	100	100	100	1.0154	0	1	0	0	0	0	0	0	0	0	0	0	0	1
62	61	0.00000	0.00010	0.00000	876	876	876	1.0000	0	1	0	0	0	0	0	0	0	0	0	0	0	1
64	61	0.00517	0.03843	0.05876	464	464	464	1.0000	0	1	0	0	0	0	0	0	0	0	0	0	0	1
109	61	0.00083	0.00620	0.00958	464	464	464	1.0000	0	1	0	0	0	0	0	0	0	0	0	0	0	0
184	61	0.01219	0.07066	0.11742	274	274	274	1.0000	0	1	0	0	0	0	0	0	0	0	0	0	0	1
82	62	0.00165	0.01095	0.01955	464	464	464	1.0000	0	1	0	0	0	0	0	0	0	0	0	0	0	1
110	62	0.00083	0.00620	0.00949	464	464	464	1.0000	0	1	0	0	0	0	0	0	0	0	0	0	0	0
71	63	0.00475	0.03079	0.04879	362	362	362	1.0000	0	1	0	0	0	0	0	0	0	0	0	0	0	1
91	63	0.00455	0.02769	0.04608	394	394	394	1.0000	0	1	0	0	0	0	0	0	0	0	0	0	0	1
94	63	0.00186	0.01260	0.02236	464	464	464	1.0000	0	1	0	0	0	0	0	0	0	0	0	0	0	1
96	63	0.00826	0.04236	0.06118	362	362	362	1.0000	0	1	0	0	0	0	0	0	0	0	0	0	0	1
64	69	0.00434	0.02975	0.05266	464	464	464	1.0000	0	1	0	0	0	0	0	0	0	0	0	0	0	1
79	64	0.00351	0.02438	0.03998	362	362	362	1.0000	0	1	0	0	0	0	0	0	0	0	0	0	0	1
93	64	0.00186	0.01260	0.02236	464	464	464	1.0000	0	1	0	0	0	0	0	0	0	0	0	0	0	1
95	64	0.00826	0.04236	0.06118	362	362	362	1.0000	0	1	0	0	0	0	0	0	0	0	0	0	0	1
90	65	0.00785	0.04132	0.06389	394	394	394	1.0000	0	1	0	0	0	0	0	0	0	0	0	0	0	1
65	91	0.00227	0.01446	0.02585	394	394	394	1.0000	0	1	0	0	0	0	0	0	0	0	0	0	0	1
66	67	0.00031	0.02094	0.00000	500	500	500	1.0616	0	1	0	0	0	0	0	0	0	0	0	0	0	1
66	68	0.00248	0.02355	0.04763	457	457	457	1.0000	0	1	0	0	0	0	0	0	0	0	0	0	0	1
152	66	0.01033	0.08285	0.13959	464	464	464	1.0000	0	1	0	0	0	0	0	0	0	0	0	0	0	1
138	67	0.00194	0.02056	0.51584	866	866	866	1.0000	0	1	0	0	0	0	0	0	0	0	0	0	0	1
911	67	0.00156	0.06269	-0.00992	250	250	250	1.0656	0	1	0	0	0	0	0	0	0	0	0	0	0	1
912	67	0.00156	0.06269	-0.00992	250	250	250	1.0660	0	1	0	0	0	0	0	0	0	0	0	0	0	1
68	78	0.00579	0.04153	0.06621	464	464	464	1.0000	0	1	0	0	0	0	0	0	0	0	0	0	0	1
978	68	0.00165	0.06694	-0.00310	160	160	160	1.0083	0	1	0	0	0	0	0	0	0	0	0	0	0	1
979	68	0.00145	0.06653	-0.00319	160	160	160	1.0060	0	1	0	0	0	0	0	0	0	0	0	0	0	1
83	69	0.00145	0.00992	0.01762	464	464	464	1.0000	0	1	0	0	0	0	0	0	0	0	0	0	0	1
995	69	0.00145	0.06550	-0.00252	160	160	160	1.0107	0	1	0	0	0	0	0	0	0	0	0	0	0	1
996	69	0.00145	0.07045	-0.00252	160	160	160	1.0025	0	1	0	0	0	0	0	0	0	0	0	0	0	1
70	73	0.00145	0.00971	0.01626	457	457	457	1.0000	0	1	0	0	0	0	0	0	0	0	0	0	0	1
107	70	0.00062	0.00413	0.00697	457	457	457	1.0000	0	1	0	0	0	0	0	0	0	0	0	0	0	1
72	71	0.00000	0.00010	0.00000	876	876	876	1.0000	0	1	0	0	0	0	0	0	0	0	0	0	0	0
86	71	0.00165	0.00971	0.01423	362	362	362	1.0000	0	1	0	0	0	0	0	0	0	0	0	0	0	1
1059	71	0.00145	0.06983	-0.00232	160	160	160	1.0193	0	1	0	0	0	0	0	0	0	0	0	0	0	1
1060	71	0.00165	0.06777	-0.00281	160	160	160	0.9558	0	1	0	0	0	0	0	0	0	0	0	0	0	0
73	75	0.00075	0.02444	-0.00832	330	330	330	1.0544	1.7	1	0	0	0	0	0	0	0	0	0	0	0	1
87	73	0.00393	0.02851	0.04501	464	464	464	1.0000	0	1	0	0	0	0	0	0	0	0	0	0	0	1
74	76	0.00075	0.02469	-0.00800	330	330	330	1.0606	1.7	1	0	0	0	0	0	0	0	0	0	0	0	1
74	108	0.00083	0.00517	0.00871	464	464	464	1.0000	0	1	0	0	0	0	0	0	0	0	0	0	0	1
76	75	0.00000	0.00010	0.00000	1593	1593	1593	1.0000	0	1	0	0	0	0	0	0	0	0	0	0	0	1
76	105	0.00244	0.02756	0.76800	845	845	845	1.0000	0	1	0	0	0	0	0	0	0	0	0	0	0	1
84	77	0.00393	0.02665	0.04617	457	457	457	1.0000	0	1	0	0	0	0	0	0	0	0	0	0	0	1
85	77	0.00186	0.01384	0.02284	464	464	464	1.0000	0	1	0	0	0	0	0	0	0	0	0	0	0	1
1095	77	0.00165	0.06694	-0.00290	160	160	160	1.0162	0	1	0	0	0	0	0	0	0	0	0	0	0	1
1096	77	0.00145	0.06736	-0.00658	160	160	160	1.0085	0	1	0	0	0	0	0	0	0	0	0	0	0	1
78	103	0.00496	0.03368	0.05963	464	464	464	1.0000	0	1	0	0	0	0	0	0	0	0	0	0	0	1
1106	78	0.00145	0.06839	-0.00319	160	160	160	1.0272	0	1	0	0	0	0	0	0	0	0	0	0	0	1
88	79	0.00310	0.02335	0.03620	464	464	464	1.0000	0	1	0	0	0	0	0	0	0	0	0	0	0	1
81	80	0.00000	0.00010	0.00000	876	876	876	1.0000	0	1	0	0	0	0	0	0	0	0	0	0	0	1
80	96	0.01591	0.08760	0.11684	362	362	362	1.0000	0	1	0	0	0	0	0	0	0	0	0	0	0	1
1114	80	0.00165	0.06694	-0.00232	160	160	160	0.9876	0	1	0	0	0	0	0	0	0	0	0	0	0	1
93	81	0.01777	0.11674	0.16359	362	362	362	1.0000	0	1	0	0	0	0	0	0	0	0	0	0	0	1
...
];


ps.gen = [...
%bus Pg Qg Qmax Qmin Vsp mBase status Pmax Pmin mu_Px mu_Pn mu_Qx mu_Qn type cost 
 10 400 120 120 0 1 168 1 400 70 0 0 0 0 2 117.95 0 0 0 0 0;
 16 720 160.532 440 -40 1 823 1 720 120 0 0 0 0 2 48.89 0 0 0 0 0;
 17 1080 212.82 660 -60 1 1234 1 1080 120 0 0 0 0 2 98.47 0 0 0 0 0;
 18 2520 160.59 1540 -140 1 2879 1 2520 120 0 0 0 0 3 128.73 1 0 0 0 0;
 29 70 240 240 0 1 511 1 400 70 0 0 0 0 2 158.23 0 0 0 0 0;
 30 70 129.949 240 0 1 511 1 800 70 0 0 0 0 2 165.62 0 0 0 0 0;
 31 1000 0 350 0 1 420 1 1000 150 0 0 0 0 2 71.22 0 0 0 0 0;
 41 200 0 120 0 1 241 1 200 70 0 0 0 0 2 102.25 0 0 0 0 0;
 42 70 0 120 0 1 241 1 410 70 0 0 0 0 2 147.83 0 0 0 0 0;
 43 410 0 240 0 1 482 1 410 70 0 0 0 0 2 75.37 0 0 0 0 0;
 44 410 0 240 0 1 482 1 410 70 0 0 0 0 2 86.01 0 0 0 0 0;
 45 42.2 21 21 0 1 49 1 42.2 39.14 0 0 0 0 2 0 0 0 0 0 0;
 63 650 103.63 302 0 1 473 1 650 145 0 0 0 0 2 68.74 0 0 0 0 0;
 64 450 78.8702 311 2 1 475 1 450 145 0 0 0 0 2 81.91 0 0 0 0 0;
 67 750 413.726 449 0 1 864 1 750 220 0 0 0 0 2 81.88 0 0 0 0 0;
 83 225 -89 190 -89 1 239 1 225 140 0 0 0 0 2 58.78 0 0 0 0 0;
 84 225 167.231 190 -89 1 251 1 225 140 0 0 0 0 2 85.57 0 0 0 0 0;
 85 120 119.623 125 -50 1 133 1 120 40 0 0 0 0 2 101.38 0 0 0 0 0;
 86 120 -6.01871 125 -50 1 133 1 120 40 0 0 0 0 2 122.43 0 0 0 0 0;
 93 120 50.5085 90 5 1 123 1 120 80 0 0 0 0 2 96.62 0 0 0 0 0;
 95 110 27 68 27 1 105 1 110 50 0 0 0 0 2 106.73 0 0 0 0 0;
 97 87.6 41.8528 68 27 1 105 1 87.6 83.26 0 0 0 0 2 0 0 0 0 0 0;
 103 160 68.7599 177 -82 1 239 1 400 160 0 0 0 0 2 151.94 0 0 0 0 0;
 104 225 97.3097 379 -177 1 490 1 225 140 0 0 0 0 2 107.51 0 0 0 0 0;
 105 430 -165 353 -165 1 502 1 430 160 0 0 0 0 2 103.53 0 0 0 0 0;
 109 250 17.6233 65 0 1 277 1 250 80 0 0 0 0 2 0 0 0 0 0 0;
 110 250 17.7852 65 0 1 280 1 250 80 0 0 0 0 2 0 0 0 0 0 0;
 111 360 126.446 270 0 1 401 1 360 40 0 0 0 0 2 136.48 0 0 0 0 0;
 123 20 40 40 0 1 98 1 110 20 0 0 0 0 2 157.46 0 0 0 0 0;
 124 125 90 90 0 1 132 1 125 45 0 0 0 0 2 83.97 0 0 0 0 0;
 125 70 360 360 0 1 654 1 860 70 0 0 0 0 2 170.74 0 0 0 0 0;
 127 690 0 360 0 1 540 1 690 70 0 0 0 0 2 80.91 0 0 0 0 0;
 131 645.377 52.6305 360 0 1 696 1 1060 70 0 0 0 0 2 147.6 0 0 0 0 0;
 132 70 286.7 480 0 1 732 1 600 70 0 0 0 0 2 158.75 0 0 0 0 0;
 139 408.67 147.319 360 0 1 714 1 600 70 0 0 0 0 2 146.94 0 0 0 0 0;
 140 200 120 120 0 1 240 1 200 70 0 0 0 0 2 96.32 0 0 0 0 0;
 176 600 -120 220 -120 1 430 1 600 70 0 0 0 0 2 0 0 0 0 0 0;
 177 200 201.005 220 -120 1 430 1 200 70 0 0 0 0 2 0 0 0 0 0 0;
 180 0 16.8544 99999 -99999 1 7485 1 0 0 0 0 0 0 2 0 0 0 0 0 0;
 181 175 26.1506 99999 -99999 1 210 1 175 174 0 0 0 0 2 0 0 0 0 0 0;
 182 307.59 48.5395 99999 -99999 1 13465 1 307.59 306 0 0 0 0 2 0 0 0 0 0 0;
 184 0 69.5787 99999 -99999 1 8353 1 0 0 0 0 0 0 2 0 0 0 0 0 0;
 185 0 12.233 99999 -99999 1 14254 1 0 0 0 0 0 0 2 0 0 0 0 0 0;
 186 0 32.0974 99999 -99999 1 7401 1 0 0 0 0 0 0 2 0 0 0 0 0 0;
 192 95 28.3494 50 0 1 114 1 95 90.25 0 0 0 0 2 0 0 0 0 0 0;
 196 0.9 1 1 0 1 1 1 0.9 0.86 0 0 0 0 2 0 0 0 0 0 0;
 198 0.8 1 1 0 1 1 1 0.8 0.76 0 0 0 0 2 0 0 0 0 0 0;
 205 15 6.20319 10 0 1 18 1 15 14.25 0 0 0 0 2 0 0 0 0 0 0;
 213 11 8 8 0 1 13 1 11 10.45 0 0 0 0 2 0 0 0 0 0 0;
 264 2.5 2 2 0 1 3 1 2.5 2.38 0 0 0 0 2 0 0 0 0 0 0;
 269 6 5 5 0 1 7 1 6 5.7 0 0 0 0 2 0 0 0 0 0 0;
 277 70 40.2687 42 0 1 84 1 70 66.5 0 0 0 0 2 0 0 0 0 0 0;
 278 60 12.5429 40 0 1 72 1 60 57 0 0 0 0 2 0 0 0 0 0 0;
 279 60 17.8785 40 0 1 72 1 60 57 0 0 0 0 2 0 0 0 0 0 0;
 281 120 34.0803 90 0 1 144 1 120 114 0 0 0 0 2 0 0 0 0 0 0;
 282 40 16.9838 40 0 1 48 1 40 38 0 0 0 0 2 0 0 0 0 0 0;
 289 2.5 3 3 0 1 3 1 2.5 2.38 0 0 0 0 2 0 0 0 0 0 0;
 294 2 1 1 0 1 2 1 2 1.9 0 0 0 0 2 0 0 0 0 0 0;
 314 1.5 1 1 0 1 2 1 1.5 1.43 0 0 0 0 2 0 0 0 0 0 0;
 328 44 19.2819 21 0 1 53 1 44 41.8 0 0 0 0 2 0 0 0 0 0 0;
 329 44 21 21 0 1 53 1 44 41.8 0 0 0 0 2 0 0 0 0 0 0;
 330 44 0 21 0 1 53 1 44 41.8 0 0 0 0 2 0 0 0 0 0 0;
 331 43 21 21 0 1 52 1 43 40.85 0 0 0 0 2 0 0 0 0 0 0;
 334 1.5 1 1 0 1 2 1 1.5 1.43 0 0 0 0 2 0 0 0 0 0 0;
 346 200 25.128 120 0 1 180 1 200 70 0 0 0 0 2 134.98 0 0 0 0 0;
 347 10 9.77566 15 0 1 12 1 10 10 0 0 0 0 2 0 0 0 0 0 0;
 359 1.5 1 1 0 1 2 1 1.5 1.43 0 0 0 0 2 0 0 0 0 0 0;
 365 5.1 3 3 0 1 6 1 5.1 4.85 0 0 0 0 2 0 0 0 0 0 0;
 382 8 5 5 0 1 10 1 8 7.6 0 0 0 0 2 0 0 0 0 0 0;
 383 8 5 5 0 1 10 1 8 7.6 0 0 0 0 2 0 0 0 0 0 0;
 385 6 4 4 0 1 7 1 6 5.7 0 0 0 0 2 0 0 0 0 0 0;
 390 4.5 3 3 0 1 5 1 4.5 4.28 0 0 0 0 2 0 0 0 0 0 0;
 395 10 5.15536 8 0 1 12 1 10 9.5 0 0 0 0 2 0 0 0 0 0 0;
 404 3 3 3 0 1 4 1 3 2.85 0 0 0 0 2 0 0 0 0 0 0;
 426 3.2 2 2 0 1 4 1 3.2 3.04 0 0 0 0 2 0 0 0 0 0 0;
 444 1 0 1 0 1 1 1 1 0.95 0 0 0 0 2 0 0 0 0 0 0;
 451 4.5 3 3 0 1 5 1 4.5 4.28 0 0 0 0 2 0 0 0 0 0 0;
 482 1 0 1 0 1 1 1 1 0.95 0 0 0 0 2 0 0 0 0 0 0;
 492 2 1 1 0 1 2 1 2 1.9 0 0 0 0 2 0 0 0 0 0 0;
 493 234 108.562 130 0 1 281 1 234 222.3 0 0 0 0 2 0 0 0 0 0 0;
 494 234 130 130 0 1 281 1 234 222.3 0 0 0 0 2 0 0 0 0 0 0;
 514 115 90 90 0 1 138 1 115 109.25 0 0 0 0 2 0 0 0 0 0 0;
 515 115 90 90 0 1 138 1 115 109.25 0 0 0 0 2 0 0 0 0 0 0;
 525 6 4 4 0 1 7 1 6 5.7 0 0 0 0 2 0 0 0 0 0 0;
 536 6 6 6 0 1 7 1 6 5.7 0 0 0 0 2 0 0 0 0 0 0;
 537 3.5 3 3 0 1 4 1 3.5 3.33 0 0 0 0 2 0 0 0 0 0 0;
 556 2.7 1 1 0 1 3 1 2.7 2.57 0 0 0 0 2 0 0 0 0 0 0;
 580 1.6 1 1 0 1 2 1 1.6 1.52 0 0 0 0 2 0 0 0 0 0 0;
 584 2.7 2 2 0 1 3 1 2.7 2.57 0 0 0 0 2 0 0 0 0 0 0;
 585 4 2 2 0 1 5 1 4 3.8 0 0 0 0 2 0 0 0 0 0 0;
 607 0.8 0 0 0 1 1 1 0.8 0.76 0 0 0 0 2 0 0 0 0 0 0;
 612 152.955 70.2917 120 0 1 256 1 200 70 0 0 0 0 2 142.94 0 0 0 0 0;
 613 200 94.9498 120 0 1 256 1 200 70 0 0 0 0 2 128.22 0 0 0 0 0;
 615 1.4 1 1 0 1 2 1 1.4 1.33 0 0 0 0 2 0 0 0 0 0 0;
 623 7.6 5 5 0 1 9 1 7.6 7.22 0 0 0 0 2 0 0 0 0 0 0;
 639 9.6 4 4 0 1 12 1 9.6 9.12 0 0 0 0 2 0 0 0 0 0 0;
 651 4.7 2 2 0 1 6 1 4.7 4.47 0 0 0 0 2 0 0 0 0 0 0;
 654 1.4 0 1 0 1 2 1 1.4 1.33 0 0 0 0 2 0 0 0 0 0 0;
 664 6.2 6 6 0 1 7 1 6.2 5.89 0 0 0 0 2 0 0 0 0 0 0;
 670 2.7 0 2 0 1 3 1 2.7 2.57 0 0 0 0 2 0 0 0 0 0 0;
 674 1 0 0 0 1 1 1 1 0.95 0 0 0 0 2 0 0 0 0 0 0;
 688 70 18.0507 120 0 1 242 1 202 70 0 0 0 0 2 141.73 0 0 0 0 0;
 692 1.4 1 1 0 1 2 1 1.4 1.33 0 0 0 0 2 0 0 0 0 0 0;
 699 3.8 0 2 0 1 5 1 3.8 3.61 0 0 0 0 2 0 0 0 0 0 0;
 712 1.2 1 1 0 1 1 1 1.2 1.14 0 0 0 0 2 0 0 0 0 0 0;
 730 6.9 0 3 0 1 8 1 6.9 6.56 0 0 0 0 2 0 0 0 0 0 0;
 732 1.1 0 1 0 1 1 1 1.1 1.05 0 0 0 0 2 0 0 0 0 0 0;
 735 4.1 2 2 0 1 5 1 4.1 3.9 0 0 0 0 2 0 0 0 0 0 0;
 740 4 0 1 0 1 5 1 4 3.8 0 0 0 0 2 0 0 0 0 0 0;
 744 134 0 60 0 1 161 1 134 127.3 0 0 0 0 2 0 0 0 0 0 0;
 754 80 0.56718 30 0 1 54 1 80 10 0 0 0 0 2 100.82 0 0 0 0 0;
 755 85 14.8352 80 0 1 110 1 250 85 0 0 0 0 2 151.9 0 0 0 0 0;
 760 3.1 2 2 0 1 4 1 3.1 2.95 0 0 0 0 2 0 0 0 0 0 0;
 766 2.1 1 1 0 1 3 1 2.1 2 0 0 0 0 2 0 0 0 0 0 0;
 784 0.7 0 0 0 1 1 1 0.7 0.67 0 0 0 0 2 0 0 0 0 0 0;
 790 49.8 35 35 35 1 60 1 49.8 47.31 0 0 0 0 2 0 0 0 0 0 0;
 795 1.89 1 1 1 1 2 1 1.89 1.8 0 0 0 0 2 0 0 0 0 0 0;
 798 2.99 3 3 3 1 4 1 2.99 2.84 0 0 0 0 2 0 0 0 0 0 0;
 814 44.92 16.1224 42 0 1 54 1 44.92 42.67 0 0 0 0 2 0 0 0 0 0 0;
 834 55 81.2873 83 0 1 110 1 55 23 0 0 0 0 2 114.15 0 0 0 0 0;
 878 2.99 0 0 0 1 4 1 2.99 2.84 0 0 0 0 2 0 0 0 0 0 0;
 884 2.49 0 0 0 1 3 1 2.49 2.37 0 0 0 0 2 0 0 0 0 0 0;
 892 31.87 34.124 42 6 1 38 1 31.87 30.28 0 0 0 0 2 0 0 0 0 0 0;
 895 8.96 7 7 7 1 11 1 8.96 8.51 0 0 0 0 2 0 0 0 0 0 0;
 901 3.68 2 2 2 1 4 1 3.68 3.5 0 0 0 0 2 0 0 0 0 0 0;
 910 4.58 3 3 3 1 6 1 4.58 4.35 0 0 0 0 2 0 0 0 0 0 0;
 911 370 59.1031 224 0 1 415 1 370 280 0 0 0 0 2 87.95 0 0 0 0 0;
 912 370 67.4296 224 0 1 415 1 370 280 0 0 0 0 2 130.25 0 0 0 0 0;
 914 15.93 10 10 10 1 19 1 15.93 15.13 0 0 0 0 2 0 0 0 0 0 0;
 917 2.09 0 0 0 1 3 1 2.09 1.99 0 0 0 0 2 0 0 0 0 0 0;
 919 21.91 12 12 12 1 26 1 21.91 20.81 0 0 0 0 2 0 0 0 0 0 0;
 920 1.99 0 0 0 1 2 1 1.99 1.89 0 0 0 0 2 0 0 0 0 0 0;
 929 63.73 32.3057 50 29 1 77 1 63.73 60.54 0 0 0 0 2 0 0 0 0 0 0;
 959 2.49 1 1 1 1 3 1 2.49 2.37 0 0 0 0 2 0 0 0 0 0 0;
 968 0.7 0 0 0 1 1 1 0.7 0.67 0 0 0 0 2 0 0 0 0 0 0;
 993 3.98 1 1 1 1 5 1 3.98 3.78 0 0 0 0 2 0 0 0 0 0 0;
 994 1.99 1 1 1 1 2 1 1.99 1.89 0 0 0 0 2 0 0 0 0 0 0;
 995 20 38 38 0 1 60 1 100 20 0 0 0 0 2 145.97 0 0 0 0 0;
 996 20 12.3996 38 0 1 60 1 50 20 0 0 0 0 2 137.58 0 0 0 0 0;
 997 20 38 38 0 1 60 1 50 20 0 0 0 0 2 147.36 0 0 0 0 0;
 1004 4.28 3 3 3 1 5 1 4.28 4.07 0 0 0 0 2 0 0 0 0 0 0;
 1024 0.1 0 0 0 1 0 1 0.1 0.1 0 0 0 0 2 0 0 0 0 0 0;
 1027 24.9 13 13 13 1 30 1 24.9 23.66 0 0 0 0 2 0 0 0 0 0 0;
 1028 2.99 3 3 3 1 4 1 2.99 2.84 0 0 0 0 2 0 0 0 0 0 0;
 1029 24.9 14 14 14 1 30 1 24.9 23.66 0 0 0 0 2 0 0 0 0 0 0;
 1053 59.76 30.2709 53 0 1 72 1 59.76 56.77 0 0 0 0 2 0 0 0 0 0 0;
 1054 29.88 31 31 0 1 36 1 29.88 28.39 0 0 0 0 2 0 0 0 0 0 0;
 1105 7.97 10 10 10 1 10 1 7.97 7.57 0 0 0 0 2 0 0 0 0 0 0;
 1106 22.91 13 13 13 1 28 1 22.91 21.76 0 0 0 0 2 0 0 0 0 0 0;
 1107 10.56 3 3 3 1 13 1 10.56 10.03 0 0 0 0 2 0 0 0 0 0 0;
 1138 44.82 41 41 0 1 54 1 44.82 42.58 0 0 0 0 2 0 0 0 0 0 0;
 1140 230 66.7193 199 -87 1 252 1 230 70 0 0 0 0 2 82.92 0 0 0 0 0;
 1141 94.917 48.8205 190 -89 1 251 1 225 70 0 0 0 0 2 133.59 0 0 0 0 0;
 1175 37.84 20 20 20 1 45 1 37.84 35.95 0 0 0 0 2 0 0 0 0 0 0;
 1182 40 12.325 125 -50 1 133 1 120 40 0 0 0 0 2 152.95 0 0 0 0 0;
 1183 120 19.5012 125 -50 1 133 1 120 40 0 0 0 0 2 67.35 0 0 0 0 0;
 1184 120 61.2682 125 -50 1 133 1 120 40 0 0 0 0 2 134.93 0 0 0 0 0;
 1191 106.56 23.6932 129 -47 1 128 1 106.56 101.23 0 0 0 0 2 0 0 0 0 0 0;
 1192 250 69.2945 125 -50 1 123 1 250 80 0 0 0 0 2 61.32 0 0 0 0 0;
 1201 99.59 0 90 0 1 120 1 99.59 94.61 0 0 0 0 2 0 0 0 0 0 0;
 1202 99.59 71.827 90 0 1 120 1 99.59 94.61 0 0 0 0 2 0 0 0 0 0 0;
 1203 99.59 44.4643 90 0 1 120 1 99.59 94.61 0 0 0 0 2 0 0 0 0 0 0;
 1232 51.79 25.1424 41 0 1 62 1 51.79 49.2 0 0 0 0 2 0 0 0 0 0 0;
 1233 14.94 19.5029 41 0 1 18 1 14.94 14.19 0 0 0 0 2 0 0 0 0 0 0;
 1244 18.92 20 20 20 1 23 1 18.92 17.97 0 0 0 0 2 0 0 0 0 0 0;
 1247 15.93 12 12 12 1 19 1 15.93 15.13 0 0 0 0 2 0 0 0 0 0 0;
 1250 197.19 65.5075 151 0 1 237 1 197.19 187.33 0 0 0 0 2 0 0 0 0 0 0;
 1268 0.5 0 0 0 1 1 1 0.5 0.48 0 0 0 0 2 0 0 0 0 0 0;
 1316 1 0 0 0 1 1 1 1 0.95 0 0 0 0 2 0 0 0 0 0 0;
 1325 1.39 0 0 0 1 2 1 1.39 1.32 0 0 0 0 2 0 0 0 0 0 0;
 1349 1.49 0 0 0 1 2 1 1.49 1.42 0 0 0 0 2 0 0 0 0 0 0;
 1356 1 2 2 2 1 1 1 1 0.95 0 0 0 0 2 0 0 0 0 0 0;
 1359 0.8 1 1 1 1 1 1 0.8 0.76 0 0 0 0 2 0 0 0 0 0 0;
 1393 12.75 0 11 0 1 15 1 12.75 12.11 0 0 0 0 2 0 0 0 0 0 0;
 1403 4.28 1 1 1 1 5 1 4.28 4.07 0 0 0 0 2 0 0 0 0 0 0;
 1416 371 29.1325 180 10 1 246 1 371 80 0 0 0 0 2 61.4 0 0 0 0 0;
 1417 120 34.9276 120 5 1 123 1 120 80 0 0 0 0 2 114.99 0 0 0 0 0;
 1418 20 32.5842 90 5 1 123 1 20 5 0 0 0 0 2 122.64 0 0 0 0 0;
 1426 495 38.8902 68 27 1 106 1 495 20 0 0 0 0 2 118.84 0 0 0 0 0;
 1429 0.2 0 0 0 1 0 1 0.2 0.19 0 0 0 0 2 0 0 0 0 0 0;
 1469 0.6 0 0 0 1 1 1 0.6 0.57 0 0 0 0 2 0 0 0 0 0 0;
 1475 2.09 2 2 2 1 3 1 2.09 1.99 0 0 0 0 2 0 0 0 0 0 0;
 1504 31.17 2 2 2 1 37 1 31.17 29.61 0 0 0 0 2 0 0 0 0 0 0;
 1505 48.8 4 4 4 1 59 1 48.8 46.36 0 0 0 0 2 0 0 0 0 0 0;
 1514 2.29 1 1 1 1 3 1 2.29 2.18 0 0 0 0 2 0 0 0 0 0 0;
 1534 0.3 0 0 0 1 0 1 0.3 0.29 0 0 0 0 2 0 0 0 0 0 0;
 1536 160 45.7739 190 -89 1 251 1 225 160 0 0 0 0 2 143.83 0 0 0 0 0;
 1537 225 71.9112 203 -95 1 255 1 225 160 0 0 0 0 2 67.48 0 0 0 0 0;
 1538 215 40.2171 190 -89 1 255 1 215 70 0 0 0 0 2 88 0 0 0 0 0;
 1542 8.96 3 3 3 1 11 1 8.96 8.51 0 0 0 0 2 0 0 0 0 0 0;
 1543 1.2 0 0 0 1 1 1 1.2 1.14 0 0 0 0 2 0 0 0 0 0 0;
 1550 1.79 1 1 1 1 2 1 1.79 1.7 0 0 0 0 2 0 0 0 0 0 0;
 1566 54.77 22.117 47 20 1 66 1 54.77 52.03 0 0 0 0 2 0 0 0 0 0 0;
 1587 63.74 27 27 27 1 77 1 63.74 60.55 0 0 0 0 2 0 0 0 0 0 0;
 1600 17.43 3 3 3 1 21 1 17.43 16.56 0 0 0 0 2 0 0 0 0 0 0;
 1602 120 18.6395 90 0 1 144 1 120 40 0 0 0 0 2 129.86 0 0 0 0 0;
 1603 120 58.0213 90 0 1 144 1 120 40 0 0 0 0 2 108.16 0 0 0 0 0;
 1609 0.3 0 0 0 1 0 1 0.3 0.29 0 0 0 0 2 0 0 0 0 0 0;
 1617 2 0 0 0 1 2 1 2 1.9 0 0 0 0 2 0 0 0 0 0 0;
 1620 1.6 0 0 0 1 2 1 1.6 1.52 0 0 0 0 2 0 0 0 0 0 0;
...
];

ps.shunt = [...
%bus P Q frac_S frac_Z status type value 
 10 12.23 9 1 0 1 1 1000 0;
 16 54.88 100 1 0 1 1 1000 0;
 17 77 150 1 0 1 1 1000 0;
 18 153 350 1 0 1 1 1000 0;
 29 25.98 60 1 0 1 1 1000 0;
 30 25.98 60 1 0 1 1 1000 0;
 31 20.98 50 1 0 1 1 1000 0;
 41 11.99 30 1 0 1 1 1000 0;
 42 11.99 30 1 0 1 1 1000 0;
 43 23.98 60 1 0 1 1 1000 0;
 44 23.98 60 1 0 1 1 1000 0;
 45 159.84 75 1 0 1 1 1000 0;
 57 22.98 10.96 1 0 1 1 1000 0;
 58 21.98 5.79 1 0 1 1 1000 0;
 63 37.37 52.69 1 0 1 1 1000 0;
 64 35.37 55.32 1 0 1 1 1000 0;
 65 13.39 2.02 1 0 1 1 1000 0;
 67 60.4 92.1 1 0 1 1 1000 0;
 83 15.99 22.97 1 0 1 1 1000 0;
 84 15.79 22.27 1 0 1 1 1000 0;
 85 9.99 17.01 1 0 1 1 1000 0;
 86 9.99 16.66 1 0 1 1 1000 0;
 87 11.09 16.22 1 0 1 1 1000 0;
 93 9.99 16.39 1 0 1 1 1000 0;
 95 6.89 8.15 1 0 1 1 1000 0;
 97 8.69 5.26 1 0 1 1 1000 0;
 103 18.09 23.76 1 0 1 1 1000 0;
 104 33.68 46.11 1 0 1 1 1000 0;
 105 33.78 62.95 1 0 1 1 1000 0;
 109 1 22.36 1 0 1 1 1000 0;
 110 1 22.18 1 0 1 1 1000 0;
 111 26.49 18 1 0 1 1 1000 0;
 123 5.5 7 1 0 1 1 1000 0;
 124 8.79 17 1 0 1 1 1000 0;
 125 35.7 18.3 1 0 1 1 1000 0;
 126 25.28 15.9 1 0 1 1 1000 0;
 127 25.71 15.3 1 0 1 1 1000 0;
 131 68.67 70 1 0 1 1 1000 0;
 132 33 45 1 0 1 1 1000 0;
 139 33.2 22.6 1 0 1 1 1000 0;
 140 29.23 19.6 1 0 1 1 1000 0;
 176 0 40 1 0 1 1 1000 0;
 177 0 40 1 0 1 1 1000 0;
 180 339.85 49.6 1 0 1 1 1000 0;
 183 150 0 1 0 1 1 1000 0;
 184 317.34 50.3 1 0 1 1 1000 0;
 185 362.43 36.7 1 0 1 1 1000 0;
 186 33.33 1 1 0 1 1 1000 0;
 187 7.12 1.5 1 0 1 1 1000 0;
 188 7.63 1 1 0 1 1 1000 0;
 189 9.77 8.7 1 0 1 1 1000 0;
 190 6.12 1.5 1 0 1 1 1000 0;
 191 6.12 1.6 1 0 1 1 1000 0;
 192 30.56 12 1 0 1 1 1000 0;
 193 15.28 3 1 0 1 1 1000 0;
 195 8.14 2 1 0 1 1 1000 0;
 196 6.92 1.5 1 0 1 1 1000 0;
 197 6.92 1.5 1 0 1 1 1000 0;
 198 12.32 1.7 1 0 1 1 1000 0;
 199 1.43 0.5 1 0 1 1 1000 0;
 200 1.08 0.5 1 0 1 1 1000 0;
 201 5.61 0.5 1 0 1 1 1000 0;
 202 18.34 2 1 0 1 1 1000 0;
 203 11.1 1.6 1 0 1 1 1000 0;
 205 6.92 2 1 0 1 1 1000 0;
 206 11.2 1 1 0 1 1 1000 0;
 207 7.32 1.6 1 0 1 1 1000 0;
 208 -7.32 -4.5 1 0 1 1 1000 0;
 209 9.36 0.8 1 0 1 1 1000 0;
 210 15.18 4.4 1 0 1 1 1000 0;
 211 8.75 0.2 1 0 1 1 1000 0;
 212 10.18 1.5 1 0 1 1 1000 0;
 213 -2.04 -1 1 0 1 1 1000 0;
 214 12.02 0.5 1 0 1 1 1000 0;
 215 6.92 2 1 0 1 1 1000 0;
 216 8.85 0.5 1 0 1 1 1000 0;
 217 1.94 0.4 1 0 1 1 1000 0;
 218 12.22 1.5 1 0 1 1 1000 0;
 219 2.55 0.5 1 0 1 1 1000 0;
 220 2.55 0.5 1 0 1 1 1000 0;
 221 4.08 0.5 1 0 1 1 1000 0;
 222 6.53 0.4 1 0 1 1 1000 0;
 223 18.65 4 1 0 1 1 1000 0;
 224 19.86 2.5 1 0 1 1 1000 0;
 225 17.3 2 1 0 1 1 1000 0;
 226 24.44 1.5 1 0 1 1 1000 0;
 227 5.61 1 1 0 1 1 1000 0;
 228 11.4 1.1 1 0 1 1 1000 0;
 229 11 2.7 1 0 1 1 1000 0;
 230 7.63 1 1 0 1 1 1000 0;
 231 7.94 1.1 1 0 1 1 1000 0;
 232 7.94 1.1 1 0 1 1 1000 0;
 233 1.84 0.8 1 0 1 1 1000 0;
 234 33.46 28 1 0 1 1 1000 0;
 235 33.76 28 1 0 1 1 1000 0;
 236 1.02 0.5 1 0 1 1 1000 0;
 237 13.95 1.7 1 0 1 1 1000 0;
 238 9.98 1 1 0 1 1 1000 0;
 239 15.28 1.5 1 0 1 1 1000 0;
 240 11.2 1.5 1 0 1 1 1000 0;
 241 10.18 3 1 0 1 1 1000 0;
 242 1.22 0.1 1 0 1 1 1000 0;
 244 1.02 0 1 0 1 1 1000 0;
 245 12.12 5.4 1 0 1 1 1000 0;
 246 -8.14 -3.6 1 0 1 1 1000 0;
 247 11.2 1.5 1 0 1 1 1000 0;
 248 3.06 0.5 1 0 1 1 1000 0;
 249 9.16 0 1 0 1 1 1000 0;
 250 27.71 3 1 0 1 1 1000 0;
 251 21.38 4 1 0 1 1 1000 0;
 252 21.38 4 1 0 1 1 1000 0;
 253 14.87 4.3 1 0 1 1 1000 0;
 254 19.86 3.5 1 0 1 1 1000 0;
 255 10.18 1 1 0 1 1 1000 0;
 256 5.61 0 1 0 1 1 1000 0;
 257 7.12 0.2 1 0 1 1 1000 0;
 258 4.08 0.3 1 0 1 1 1000 0;
 259 20.87 4.2 1 0 1 1 1000 0;
 260 10.69 1.5 1 0 1 1 1000 0;
 261 7.94 2 1 0 1 1 1000 0;
 262 0.2 0 1 0 1 1 1000 0;
 263 5.3 1 1 0 1 1 1000 0;
 264 12.22 1 1 0 1 1 1000 0;
 265 12.22 1 1 0 1 1 1000 0;
 266 8.34 1.6 1 0 1 1 1000 0;
 267 10.38 3 1 0 1 1 1000 0;
 268 14.87 3.7 1 0 1 1 1000 0;
 269 15.28 4 1 0 1 1 1000 0;
 270 3.67 0.5 1 0 1 1 1000 0;
 271 3.67 0.5 1 0 1 1 1000 0;
 272 9.26 3 1 0 1 1 1000 0;
 273 12.93 3.7 1 0 1 1 1000 0;
 274 25.67 7.4 1 0 1 1 1000 0;
 275 23.22 6.7 1 0 1 1 1000 0;
 276 14.26 5.1 1 0 1 1 1000 0;
 277 52.14 20.4 1 0 1 1 1000 0;
 278 24.95 9.7 1 0 1 1 1000 0;
 279 24.95 9.7 1 0 1 1 1000 0;
 281 30.66 11.9 1 0 1 1 1000 0;
 282 13.14 5.1 1 0 1 1 1000 0;
 283 17.02 0.2 1 0 1 1 1000 0;
 284 2.55 0.5 1 0 1 1 1000 0;
 285 8.14 1.5 1 0 1 1 1000 0;
 286 29.75 4.1 1 0 1 1 1000 0;
 287 12.22 4 1 0 1 1 1000 0;
 288 13.14 3.8 1 0 1 1 1000 0;
 289 21.28 6.1 1 0 1 1 1000 0;
 290 17.32 3 1 0 1 1 1000 0;
 291 16.81 5.4 1 0 1 1 1000 0;
 292 17.32 5 1 0 1 1 1000 0;
 293 7.43 2.1 1 0 1 1 1000 0;
 294 15.28 3 1 0 1 1 1000 0;
 295 21.28 3.4 1 0 1 1 1000 0;
 296 17.63 5.1 1 0 1 1 1000 0;
 297 8.55 2 1 0 1 1 1000 0;
 298 7.02 1.6 1 0 1 1 1000 0;
 299 48.06 13.8 1 0 1 1 1000 0;
 300 21.38 9 1 0 1 1 1000 0;
 301 6.22 1.3 1 0 1 1 1000 0;
 302 6.12 1.3 1 0 1 1 1000 0;
 303 6.32 0.5 1 0 1 1 1000 0;
 304 17.83 5.1 1 0 1 1 1000 0;
 305 7.53 1.1 1 0 1 1 1000 0;
 306 21.38 4 1 0 1 1 1000 0;
 307 18.34 4 1 0 1 1 1000 0;
 308 5.1 0 1 0 1 1 1000 0;
 311 32.4 5.7 1 0 1 1 1000 0;
 313 7.12 0.5 1 0 1 1 1000 0;
 314 7.73 1.5 1 0 1 1 1000 0;
 315 9.47 0 1 0 1 1 1000 0;
 316 16.2 4 1 0 1 1 1000 0;
 317 7.12 2 1 0 1 1 1000 0;
 318 6.12 2 1 0 1 1 1000 0;
 319 0.81 0.3 1 0 1 1 1000 0;
 320 7.12 1 1 0 1 1 1000 0;
 323 9.98 1.8 1 0 1 1 1000 0;
 324 11.2 1.6 1 0 1 1 1000 0;
 325 13.65 0.3 1 0 1 1 1000 0;
 326 6.62 1.2 1 0 1 1 1000 0;
 327 4.08 0.1 1 0 1 1 1000 0;
 328 45.83 23 1 0 1 1 1000 0;
 329 45.83 23 1 0 1 1 1000 0;
 330 48.36 22 1 0 1 1 1000 0;
 331 48.36 22 1 0 1 1 1000 0;
 333 9.47 0.4 1 0 1 1 1000 0;
 334 16.81 0.7 1 0 1 1 1000 0;
 335 4.08 1 1 0 1 1 1000 0;
 337 17.83 5.5 1 0 1 1 1000 0;
 338 2.55 1.2 1 0 1 1 1000 0;
 339 3.98 1.7 1 0 1 1 1000 0;
 340 11.2 1.5 1 0 1 1 1000 0;
 341 11 0.1 1 0 1 1 1000 0;
 342 16.3 1.6 1 0 1 1 1000 0;
 343 1.02 0.5 1 0 1 1 1000 0;
 344 13.24 5 1 0 1 1 1000 0;
 345 17.73 4 1 0 1 1 1000 0;
 346 18.34 13 1 0 1 1 1000 0;
 347 8.14 4.5 1 0 1 1 1000 0;
 348 2.04 0.5 1 0 1 1 1000 0;
 349 20.37 4.5 1 0 1 1 1000 0;
...
];

ps.areas = [...
 1 18;
];

ps.gencost = [...
 2 0 0 3 0 117.95 0;
 2 0 0 3 0 48.89 0;
 2 0 0 3 0 98.47 0;
 2 0 0 3 0 128.73 0;
 2 0 0 3 0 158.23 0;
 2 0 0 3 0 165.62 0;
 2 0 0 3 0 71.22 0;
 2 0 0 3 0 102.25 0;
 2 0 0 3 0 147.83 0;
 2 0 0 3 0 75.37 0;
 2 0 0 3 0 86.01 0;
 2 0 0 3 0 0 0;
 2 0 0 3 0 68.74 0;
 2 0 0 3 0 81.91 0;
 2 0 0 3 0 81.88 0;
 2 0 0 3 0 58.78 0;
 2 0 0 3 0 85.57 0;
 2 0 0 3 0 101.38 0;
 2 0 0 3 0 122.43 0;
 2 0 0 3 0 96.62 0;
 2 0 0 3 0 106.73 0;
 2 0 0 3 0 0 0;
 2 0 0 3 0 151.94 0;
 2 0 0 3 0 107.51 0;
 2 0 0 3 0 103.53 0;
 2 0 0 3 0 0 0;
 2 0 0 3 0 0 0;
 2 0 0 3 0 136.48 0;
 2 0 0 3 0 157.46 0;
 2 0 0 3 0 83.97 0;
 2 0 0 3 0 170.74 0;
 2 0 0 3 0 80.91 0;
 2 0 0 3 0 147.6 0;
 2 0 0 3 0 158.75 0;
 2 0 0 3 0 146.94 0;
 2 0 0 3 0 96.32 0;
 2 0 0 3 0 0 0;
 2 0 0 3 0 0 0;
 2 0 0 3 0 0 0;
 2 0 0 3 0 0 0;
 2 0 0 3 0 0 0;
 2 0 0 3 0 0 0;
 2 0 0 3 0 0 0;
 2 0 0 3 0 0 0;
 2 0 0 3 0 0 0;
 2 0 0 3 0 0 0;
 2 0 0 3 0 0 0;
 2 0 0 3 0 0 0;
 2 0 0 3 0 0 0;
 2 0 0 3 0 0 0;
 2 0 0 3 0 0 0;
 2 0 0 3 0 0 0;
 2 0 0 3 0 0 0;
 2 0 0 3 0 0 0;
 2 0 0 3 0 0 0;
 2 0 0 3 0 0 0;
 2 0 0 3 0 0 0;
 2 0 0 3 0 0 0;
 2 0 0 3 0 0 0;
 2 0 0 3 0 0 0;
 2 0 0 3 0 0 0;
 2 0 0 3 0 0 0;
 2 0 0 3 0 0 0;
 2 0 0 3 0 0 0;
 2 0 0 3 0 134.98 0;
 2 0 0 3 0 0 0;
 2 0 0 3 0 0 0;
 2 0 0 3 0 0 0;
 2 0 0 3 0 0 0;
 2 0 0 3 0 0 0;
 2 0 0 3 0 0 0;
 2 0 0 3 0 0 0;
 2 0 0 3 0 0 0;
 2 0 0 3 0 0 0;
 2 0 0 3 0 0 0;
 2 0 0 3 0 0 0;
 2 0 0 3 0 0 0;
 2 0 0 3 0 0 0;
 2 0 0 3 0 0 0;
 2 0 0 3 0 0 0;
 2 0 0 3 0 0 0;
 2 0 0 3 0 0 0;
 2 0 0 3 0 0 0;
 2 0 0 3 0 0 0;
 2 0 0 3 0 0 0;
 2 0 0 3 0 0 0;
 2 0 0 3 0 0 0;
 2 0 0 3 0 0 0;
 2 0 0 3 0 0 0;
 2 0 0 3 0 0 0;
 2 0 0 3 0 0 0;
 2 0 0 3 0 142.94 0;
 2 0 0 3 0 128.22 0;
 2 0 0 3 0 0 0;
 2 0 0 3 0 0 0;
 2 0 0 3 0 0 0;
 2 0 0 3 0 0 0;
 2 0 0 3 0 0 0;
 2 0 0 3 0 0 0;
 2 0 0 3 0 0 0;
 2 0 0 3 0 0 0;
 2 0 0 3 0 141.73 0;
 2 0 0 3 0 0 0;
 2 0 0 3 0 0 0;
 2 0 0 3 0 0 0;
 2 0 0 3 0 0 0;
 2 0 0 3 0 0 0;
 2 0 0 3 0 0 0;
 2 0 0 3 0 0 0;
 2 0 0 3 0 0 0;
 2 0 0 3 0 100.82 0;
 2 0 0 3 0 151.9 0;
 2 0 0 3 0 0 0;
 2 0 0 3 0 0 0;
 2 0 0 3 0 0 0;
 2 0 0 3 0 0 0;
 2 0 0 3 0 0 0;
 2 0 0 3 0 0 0;
 2 0 0 3 0 0 0;
 2 0 0 3 0 114.15 0;
 2 0 0 3 0 0 0;
 2 0 0 3 0 0 0;
 2 0 0 3 0 0 0;
 2 0 0 3 0 0 0;
 2 0 0 3 0 0 0;
 2 0 0 3 0 0 0;
 2 0 0 3 0 87.95 0;
 2 0 0 3 0 130.25 0;
 2 0 0 3 0 0 0;
 2 0 0 3 0 0 0;
 2 0 0 3 0 0 0;
 2 0 0 3 0 0 0;
 2 0 0 3 0 0 0;
 2 0 0 3 0 0 0;
 2 0 0 3 0 0 0;
 2 0 0 3 0 0 0;
 2 0 0 3 0 0 0;
 2 0 0 3 0 145.97 0;
 2 0 0 3 0 137.58 0;
 2 0 0 3 0 147.36 0;
 2 0 0 3 0 0 0;
 2 0 0 3 0 0 0;
 2 0 0 3 0 0 0;
 2 0 0 3 0 0 0;
 2 0 0 3 0 0 0;
 2 0 0 3 0 0 0;
 2 0 0 3 0 0 0;
 2 0 0 3 0 0 0;
 2 0 0 3 0 0 0;
 2 0 0 3 0 0 0;
 2 0 0 3 0 0 0;
 2 0 0 3 0 82.92 0;
 2 0 0 3 0 133.59 0;
 2 0 0 3 0 0 0;
 2 0 0 3 0 152.95 0;
 2 0 0 3 0 67.35 0;
 2 0 0 3 0 134.93 0;
 2 0 0 3 0 0 0;
 2 0 0 3 0 61.32 0;
 2 0 0 3 0 0 0;
 2 0 0 3 0 0 0;
 2 0 0 3 0 0 0;
 2 0 0 3 0 0 0;
 2 0 0 3 0 0 0;
 2 0 0 3 0 0 0;
 2 0 0 3 0 0 0;
 2 0 0 3 0 0 0;
 2 0 0 3 0 0 0;
 2 0 0 3 0 0 0;
 2 0 0 3 0 0 0;
 2 0 0 3 0 0 0;
 2 0 0 3 0 0 0;
 2 0 0 3 0 0 0;
 2 0 0 3 0 0 0;
 2 0 0 3 0 0 0;
 2 0 0 3 0 61.4 0;
 2 0 0 3 0 114.99 0;
 2 0 0 3 0 122.64 0;
 2 0 0 3 0 118.84 0;
 2 0 0 3 0 0 0;
 2 0 0 3 0 0 0;
 2 0 0 3 0 0 0;
 2 0 0 3 0 0 0;
 2 0 0 3 0 0 0;
 2 0 0 3 0 0 0;
 2 0 0 3 0 0 0;
 2 0 0 3 0 143.83 0;
 2 0 0 3 0 67.48 0;
 2 0 0 3 0 88 0;
 2 0 0 3 0 0 0;
 2 0 0 3 0 0 0;
 2 0 0 3 0 0 0;
 2 0 0 3 0 0 0;
 2 0 0 3 0 0 0;
 2 0 0 3 0 0 0;
 2 0 0 3 0 129.86 0;
 2 0 0 3 0 108.16 0;
 2 0 0 3 0 0 0;
 2 0 0 3 0 0 0;
 2 0 0 3 0 0 0;
...
];

ps = updateps(ps);
return



